data_SrTiO3\(1\0\0)
_audit_creation_date              2024-01-27
_audit_creation_method            'Materials Studio'
_symmetry_space_group_name_H-M    'P1'
_symmetry_Int_Tables_number       1
_symmetry_cell_setting            triclinic
loop_
_symmetry_equiv_pos_as_xyz
  x,y,z
_cell_length_a                    7.8254
_cell_length_b                    7.8254
_cell_length_c                    24.7818
_cell_angle_alpha                 90.0000
_cell_angle_beta                  90.0000
_cell_angle_gamma                 90.0000
loop_
_atom_site_label
_atom_site_type_symbol
_atom_site_fract_x
_atom_site_fract_y
_atom_site_fract_z
_atom_site_U_iso_or_equiv
_atom_site_adp_type
_atom_site_occupancy
Sr1    Sr    0.00000   0.00000   0.00000   0.00000  Uiso   1.00
Sr2    Sr    0.00000   0.00000   0.15789   0.00000  Uiso   1.00
Sr3    Sr    0.00000   0.00000   0.31577   0.00000  Uiso   1.00
Ti4    Ti    0.25000   0.25000   0.07894   0.00000  Uiso   1.00
Ti5    Ti    0.25000   0.25000   0.23683   0.00000  Uiso   1.00
Ti6    Ti    0.25000   0.25000   0.39472   0.00000  Uiso   1.00
O7     O     0.00000   0.25000   0.07894   0.00000  Uiso   1.00
O8     O     0.00000   0.25000   0.23683   0.00000  Uiso   1.00
O9     O     0.00000   0.25000   0.39472   0.00000  Uiso   1.00
O10    O     0.25000   0.00000   0.07894   0.00000  Uiso   1.00
O11    O     0.25000   0.00000   0.23683   0.00000  Uiso   1.00
O12    O     0.25000   0.00000   0.39472   0.00000  Uiso   1.00
O13    O     0.25000   0.25000   0.00000   0.00000  Uiso   1.00
O14    O     0.25000   0.25000   0.15789   0.00000  Uiso   1.00
O15    O     0.25000   0.25000   0.31577   0.00000  Uiso   1.00
Sr16   Sr    0.50000   0.00000   0.00000   0.00000  Uiso   1.00
Sr17   Sr    0.50000   0.00000   0.15789   0.00000  Uiso   1.00
Sr18   Sr    0.50000   0.00000   0.31577   0.00000  Uiso   1.00
Ti19   Ti    0.75000   0.25000   0.07894   0.00000  Uiso   1.00
Ti20   Ti    0.75000   0.25000   0.23683   0.00000  Uiso   1.00
Ti21   Ti    0.75000   0.25000   0.39472   0.00000  Uiso   1.00
O22    O     0.50000   0.25000   0.07894   0.00000  Uiso   1.00
O23    O     0.50000   0.25000   0.23683   0.00000  Uiso   1.00
O24    O     0.50000   0.25000   0.39472   0.00000  Uiso   1.00
O25    O     0.75000   0.00000   0.07894   0.00000  Uiso   1.00
O26    O     0.75000   0.00000   0.23683   0.00000  Uiso   1.00
O27    O     0.75000   0.00000   0.39472   0.00000  Uiso   1.00
O28    O     0.75000   0.25000   0.00000   0.00000  Uiso   1.00
O29    O     0.75000   0.25000   0.15789   0.00000  Uiso   1.00
O30    O     0.75000   0.25000   0.31577   0.00000  Uiso   1.00
Sr31   Sr    0.00000   0.50000   0.00000   0.00000  Uiso   1.00
Sr32   Sr    0.00000   0.50000   0.15789   0.00000  Uiso   1.00
Sr33   Sr    0.00000   0.50000   0.31577   0.00000  Uiso   1.00
Ti34   Ti    0.25000   0.75000   0.07894   0.00000  Uiso   1.00
Ti35   Ti    0.25000   0.75000   0.23683   0.00000  Uiso   1.00
Ti36   Ti    0.25000   0.75000   0.39472   0.00000  Uiso   1.00
O37    O     0.00000   0.75000   0.07894   0.00000  Uiso   1.00
O38    O     0.00000   0.75000   0.23683   0.00000  Uiso   1.00
O39    O     0.00000   0.75000   0.39472   0.00000  Uiso   1.00
O40    O     0.25000   0.50000   0.07894   0.00000  Uiso   1.00
O41    O     0.25000   0.50000   0.23683   0.00000  Uiso   1.00
O42    O     0.25000   0.50000   0.39472   0.00000  Uiso   1.00
O43    O     0.25000   0.75000   0.00000   0.00000  Uiso   1.00
O44    O     0.25000   0.75000   0.15789   0.00000  Uiso   1.00
O45    O     0.25000   0.75000   0.31577   0.00000  Uiso   1.00
Sr46   Sr    0.50000   0.50000   0.00000   0.00000  Uiso   1.00
Sr47   Sr    0.50000   0.50000   0.15789   0.00000  Uiso   1.00
Sr48   Sr    0.50000   0.50000   0.31577   0.00000  Uiso   1.00
Ti49   Ti    0.75000   0.75000   0.07894   0.00000  Uiso   1.00
Ti50   Ti    0.75000   0.75000   0.23683   0.00000  Uiso   1.00
Ti51   Ti    0.75000   0.75000   0.39472   0.00000  Uiso   1.00
O52    O     0.50000   0.75000   0.07894   0.00000  Uiso   1.00
O53    O     0.50000   0.75000   0.23683   0.00000  Uiso   1.00
O54    O     0.50000   0.75000   0.39472   0.00000  Uiso   1.00
O55    O     0.75000   0.50000   0.07894   0.00000  Uiso   1.00
O56    O     0.75000   0.50000   0.23683   0.00000  Uiso   1.00
O57    O     0.75000   0.50000   0.39472   0.00000  Uiso   1.00
O58    O     0.75000   0.75000   0.00000   0.00000  Uiso   1.00
O59    O     0.75000   0.75000   0.15789   0.00000  Uiso   1.00
O60    O     0.75000   0.75000   0.31577   0.00000  Uiso   1.00
loop_
_geom_bond_atom_site_label_1
_geom_bond_atom_site_label_2
_geom_bond_distance
_geom_bond_site_symmetry_2
_ccdc_geom_bond_type
Ti4    O7      1.956   .     S
Ti4    O22     1.956   .     S
Ti4    O10     1.956   .     S
Ti4    O40     1.956   .     S
Ti4    O13     1.956   .     S
Ti4    O14     1.956   .     S
Ti5    O8      1.956   .     S
Ti5    O23     1.956   .     S
Ti5    O11     1.956   .     S
Ti5    O41     1.956   .     S
Ti5    O14     1.956   .     S
Ti5    O15     1.956   .     S
Ti6    O9      1.956   .     S
Ti6    O24     1.956   .     S
Ti6    O12     1.956   .     S
Ti6    O42     1.956   .     S
Ti6    O15     1.956   .     S
O7     Ti19    1.956   1_455 S
O8     Ti20    1.956   1_455 S
O9     Ti21    1.956   1_455 S
O10    Ti34    1.956   1_545 S
O11    Ti35    1.956   1_545 S
O12    Ti36    1.956   1_545 S
Ti19   O22     1.956   .     S
Ti19   O7      1.956   1_655 S
Ti19   O25     1.956   .     S
Ti19   O55     1.956   .     S
Ti19   O28     1.956   .     S
Ti19   O29     1.956   .     S
Ti20   O23     1.956   .     S
Ti20   O8      1.956   1_655 S
Ti20   O26     1.956   .     S
Ti20   O56     1.956   .     S
Ti20   O29     1.956   .     S
Ti20   O30     1.956   .     S
Ti21   O24     1.956   .     S
Ti21   O9      1.956   1_655 S
Ti21   O27     1.956   .     S
Ti21   O57     1.956   .     S
Ti21   O30     1.956   .     S
O25    Ti49    1.956   1_545 S
O26    Ti50    1.956   1_545 S
O27    Ti51    1.956   1_545 S
Ti34   O37     1.956   .     S
Ti34   O52     1.956   .     S
Ti34   O40     1.956   .     S
Ti34   O10     1.956   1_565 S
Ti34   O43     1.956   .     S
Ti34   O44     1.956   .     S
Ti35   O38     1.956   .     S
Ti35   O53     1.956   .     S
Ti35   O41     1.956   .     S
Ti35   O11     1.956   1_565 S
Ti35   O44     1.956   .     S
Ti35   O45     1.956   .     S
Ti36   O39     1.956   .     S
Ti36   O54     1.956   .     S
Ti36   O42     1.956   .     S
Ti36   O12     1.956   1_565 S
Ti36   O45     1.956   .     S
O37    Ti49    1.956   1_455 S
O38    Ti50    1.956   1_455 S
O39    Ti51    1.956   1_455 S
Ti49   O52     1.956   .     S
Ti49   O37     1.956   1_655 S
Ti49   O55     1.956   .     S
Ti49   O25     1.956   1_565 S
Ti49   O58     1.956   .     S
Ti49   O59     1.956   .     S
Ti50   O53     1.956   .     S
Ti50   O38     1.956   1_655 S
Ti50   O56     1.956   .     S
Ti50   O26     1.956   1_565 S
Ti50   O59     1.956   .     S
Ti50   O60     1.956   .     S
Ti51   O54     1.956   .     S
Ti51   O39     1.956   1_655 S
Ti51   O57     1.956   .     S
Ti51   O27     1.956   1_565 S
Ti51   O60     1.956   .     S
