data_image0
_chemical_formula_structural       Ti2O4
_chemical_formula_sum              "Ti2 O4"
_cell_length_a       8.94942
_cell_length_b       5.35638
_cell_length_c       37.9284
_cell_angle_alpha    166.656
_cell_angle_beta     19.6947
_cell_angle_gamma    165.324

_space_group_name_H-M_alt    "P 1"
_space_group_IT_number       1

loop_
  _space_group_symop_operation_xyz
  'x, y, z'

loop_
  _atom_site_type_symbol
  _atom_site_label
  _atom_site_symmetry_multiplicity
  _atom_site_fract_x
  _atom_site_fract_y
  _atom_site_fract_z
  _atom_site_occupancy
  Ti  Ti1       1.0  0.55916  0.96541  0.05476  1.0000
  Ti  Ti2       1.0  0.91286  0.92459  0.68518  1.0000
  O   O1        1.0  0.06611  0.37663  0.04967  1.0000
  O   O2        1.0  0.88918  0.91681  0.64261  1.0000
  O   O3        1.0  0.16563  0.16302  0.20187  1.0000
  O   O4        1.0  0.59785  0.61664  0.75664  1.0000
