data_image0
_chemical_formula_structural       Ti2O4
_chemical_formula_sum              "Ti2 O4"
_cell_length_a       9.36791
_cell_length_b       3.79655
_cell_length_c       3.81816
_cell_angle_alpha    89.9155
_cell_angle_beta     126.698
_cell_angle_gamma    52.2913

_space_group_name_H-M_alt    "P 1"
_space_group_IT_number       1

loop_
  _space_group_symop_operation_xyz
  'x, y, z'

loop_
  _atom_site_type_symbol
  _atom_site_label
  _atom_site_symmetry_multiplicity
  _atom_site_fract_x
  _atom_site_fract_y
  _atom_site_fract_z
  _atom_site_occupancy
  Ti  Ti1       1.0  0.22673  0.46486  0.31247  1.0000
  Ti  Ti2       1.0  0.72923  0.21175  0.09767  1.0000
  O   O1        1.0  0.63251  0.86393  0.95002  1.0000
  O   O2        1.0  0.30286  0.86404  0.40531  1.0000
  O   O3        1.0  0.80385  0.10641  0.68957  1.0000
  O   O4        1.0  0.12656  0.64085  0.65906  1.0000
