data_image0
_chemical_formula_structural       Ti2O4
_chemical_formula_sum              "Ti2 O4"
_cell_length_a       11.5179
_cell_length_b       26.9658
_cell_length_c       21.1534
_cell_angle_alpha    163.04
_cell_angle_beta     171.673
_cell_angle_gamma    9.41685

_space_group_name_H-M_alt    "P 1"
_space_group_IT_number       1

loop_
  _space_group_symop_operation_xyz
  'x, y, z'

loop_
  _atom_site_type_symbol
  _atom_site_label
  _atom_site_symmetry_multiplicity
  _atom_site_fract_x
  _atom_site_fract_y
  _atom_site_fract_z
  _atom_site_occupancy
  Ti  Ti1       1.0  0.28108  0.06411  0.04168  1.0000
  Ti  Ti2       1.0  0.84319  0.58413  0.04974  1.0000
  O   O1        1.0  0.84087  0.76068  0.19739  1.0000
  O   O2        1.0  0.50656  0.38337  0.06763  1.0000
  O   O3        1.0  0.77465  0.17819  0.38796  1.0000
  O   O4        1.0  0.71903  0.39177  0.36726  1.0000
