data_image0
_chemical_formula_structural       Ti2O4
_chemical_formula_sum              "Ti2 O4"
_cell_length_a       18.4238
_cell_length_b       22.6123
_cell_length_c       10.0614
_cell_angle_alpha    85.0124
_cell_angle_beta     105.207
_cell_angle_gamma    137.421

_space_group_name_H-M_alt    "P 1"
_space_group_IT_number       1

loop_
  _space_group_symop_operation_xyz
  'x, y, z'

loop_
  _atom_site_type_symbol
  _atom_site_label
  _atom_site_symmetry_multiplicity
  _atom_site_fract_x
  _atom_site_fract_y
  _atom_site_fract_z
  _atom_site_occupancy
  Ti  Ti1       1.0  0.33474  0.93367  0.40922  1.0000
  Ti  Ti2       1.0  0.38913  0.66794  0.84089  1.0000
  O   O1        1.0  0.10051  0.61615  0.36058  1.0000
  O   O2        1.0  0.68666  0.54272  0.08466  1.0000
  O   O3        1.0  0.00557  0.40500  0.88631  1.0000
  O   O4        1.0  0.43242  0.70076  0.00547  1.0000
