data_image0
_chemical_formula_structural       Ti2O4
_chemical_formula_sum              "Ti2 O4"
_cell_length_a       3.77875
_cell_length_b       7.8345
_cell_length_c       7.00738
_cell_angle_alpha    43.8821
_cell_angle_beta     57.318
_cell_angle_gamma    43.4649

_space_group_name_H-M_alt    "P 1"
_space_group_IT_number       1

loop_
  _space_group_symop_operation_xyz
  'x, y, z'

loop_
  _atom_site_type_symbol
  _atom_site_label
  _atom_site_symmetry_multiplicity
  _atom_site_fract_x
  _atom_site_fract_y
  _atom_site_fract_z
  _atom_site_occupancy
  Ti  Ti1       1.0  0.13001  0.26319  0.61111  1.0000
  Ti  Ti2       1.0  0.19447  0.71333  0.87642  1.0000
  O   O1        1.0  0.61796  0.56904  0.66493  1.0000
  O   O2        1.0  0.57784  0.81369  0.84143  1.0000
  O   O3        1.0  0.26899  0.41383  0.25018  1.0000
  O   O4        1.0  0.69755  0.15557  0.70596  1.0000
